Version 4
SHEET 1 1220 680
WIRE 896 64 16 64
WIRE -64 96 -192 96
WIRE 16 96 16 64
WIRE 16 96 -64 96
WIRE 64 96 16 96
WIRE 256 96 144 96
WIRE 336 96 256 96
WIRE 400 96 336 96
WIRE 256 112 256 96
WIRE 400 112 400 96
WIRE 480 112 400 112
WIRE 960 112 480 112
WIRE 1152 112 960 112
WIRE -192 128 -192 96
WIRE 896 128 896 64
WIRE 592 192 480 192
WIRE 864 192 848 192
WIRE -64 208 -64 176
WIRE -32 208 -64 208
WIRE 256 208 256 192
WIRE 256 208 224 208
WIRE 848 208 848 192
WIRE 1152 208 1152 112
WIRE 400 224 400 192
WIRE 864 224 864 192
WIRE 896 224 896 208
WIRE 896 224 864 224
WIRE -192 240 -192 208
WIRE 592 304 416 304
WIRE 960 304 960 112
WIRE 960 304 848 304
WIRE -32 320 -64 320
WIRE 336 320 336 96
WIRE 336 320 224 320
WIRE -64 352 -64 320
WIRE 1152 400 1152 288
WIRE 928 464 848 464
WIRE 272 480 224 480
WIRE 272 496 272 480
WIRE 928 496 928 464
WIRE 272 576 -320 576
WIRE 416 576 416 304
WIRE 416 576 272 576
WIRE 928 576 416 576
WIRE 1152 576 1152 480
WIRE 1152 576 928 576
WIRE 272 592 272 576
FLAG 400 224 0
FLAG -192 240 0
FLAG -64 352 0
FLAG 272 592 0
FLAG 272 480 OUT
SYMBOL voltage 400 96 R0
WINDOW 123 0 0 Left 2
WINDOW 39 0 0 Left 2
SYMATTR InstName V1
SYMATTR Value 15
SYMBOL res 160 80 R90
WINDOW 0 0 56 VBottom 2
WINDOW 3 32 56 VTop 2
SYMATTR InstName R1
SYMATTR Value 0.0005
SYMBOL current -192 128 R0
WINDOW 123 24 116 Left 2
WINDOW 39 0 0 Left 2
SYMATTR InstName Iload
SYMATTR Value 0
SYMBOL LTC6101 96 336 R0
SYMATTR InstName U1
SYMBOL res 240 96 R0
SYMATTR InstName R2
SYMATTR Value 100
SYMBOL res 256 480 R0
SYMATTR InstName R3
SYMATTR Value 39000
SYMBOL LTC6101 720 320 R0
SYMATTR InstName U2
SYMBOL res 912 480 R0
SYMATTR InstName R4
SYMATTR Value 39000
SYMBOL res 880 112 R0
SYMATTR InstName R5
SYMATTR Value 100
SYMBOL res -80 80 R0
SYMATTR InstName R6
SYMATTR Value 100
SYMBOL res 464 96 R0
SYMATTR InstName R7
SYMATTR Value 100
SYMBOL res 1136 384 R0
SYMATTR InstName R8
SYMATTR Value 20k
SYMBOL res 1136 192 R0
SYMATTR InstName R9
SYMATTR Value 80k
TEXT 352 472 Left 2 !.dc Iload -0.5 15 0.001
